obj01
  PyMOL3.1          3D                             0

 63 68  0  0  0  0  0  0  0  0999 V2000
   -7.5730  -42.1450  -13.8860 O   0  0  0  0  0  0  0  0  0  0  0  0
   -6.0450  -35.3890  -13.0430 O   0  0  0  0  0  0  0  0  0  0  0  0
   -7.7810  -41.0060  -14.2210 C   0  0  0  0  0  0  0  0  0  0  0  0
   -5.1480  -34.1850  -11.5600 C   0  0  0  0  0  0  0  0  0  0  0  0
   -4.8760  -33.7640  -10.3490 C   0  0  0  0  0  0  0  0  0  0  0  0
   -7.6140  -35.9820  -14.6490 C   0  0  0  0  0  0  0  0  0  0  0  0
   -6.5820  -37.6880  -13.2800 C   0  0  0  0  0  0  0  0  0  0  0  0
   -8.3720  -36.9600  -15.2860 C   0  0  0  0  0  0  0  0  0  0  0  0
   -3.0790  -29.6480   -4.5480 C   0  0  0  0  0  0  0  0  0  0  0  0
   -2.8320  -29.4620   -3.1770 C   0  0  0  0  0  0  0  0  0  0  0  0
   -6.7430  -36.3650  -13.6570 C   0  0  0  0  0  0  0  0  0  0  0  0
   -7.3400  -38.6690  -13.9330 C   0  0  0  0  0  0  0  0  0  0  0  0
   -8.2150  -38.2910  -14.9140 C   0  0  0  0  0  0  0  0  0  0  0  0
   -3.6890  -30.8470   -4.9700 C   0  0  0  0  0  0  0  0  0  0  0  0
   -4.6330  -32.9520   -4.2250 C   0  0  0  0  0  0  0  0  0  0  0  0
   -3.1770  -30.4110   -2.2210 C   0  0  0  0  0  0  0  0  0  0  0  0
   -4.7940  -33.5610   -3.0060 C   0  0  0  0  0  0  0  0  0  0  0  0
   -4.0180  -31.7430   -3.9840 C   0  0  0  0  0  0  0  0  0  0  0  0
   -3.7910  -31.5770   -2.6700 C   0  0  0  0  0  0  0  0  0  0  0  0
   -7.1740  -39.9930  -13.5760 N   0  0  0  0  0  0  0  0  0  0  0  0
   -4.1580  -32.0080   -8.9100 N   0  0  0  0  0  0  0  0  0  0  0  0
   -4.0330  -31.1370   -6.2730 N   0  0  0  0  0  0  0  0  0  0  0  0
   -4.2760  -32.7110   -2.0650 N   0  0  0  0  0  0  0  0  0  0  0  0
   -5.5650  -35.5380  -11.8650 C   0  0  0  0  0  0  0  0  0  0  0  0
   -4.7110  -32.3200  -10.1670 C   0  0  0  0  0  0  0  0  0  0  0  0
   -4.2690  -32.9870   -0.6510 C   0  0  0  0  0  0  0  0  0  0  0  0
   -8.6720  -40.7140  -15.3540 C   0  0  0  0  0  0  0  0  0  0  0  0
   -9.0300  -39.3550  -15.5910 C   0  0  0  0  0  0  0  0  0  0  0  0
   -4.1740  -30.5800   -8.6030 C   0  0  0  0  0  0  0  0  0  0  0  0
   -3.5450  -30.3020   -7.3040 C   0  0  0  0  0  0  0  0  0  0  0  0
   -4.9880  -33.3330   -5.5790 C   0  0  0  0  0  0  0  0  0  0  0  0
   -4.8220  -32.7500   -7.8990 C   0  0  0  0  0  0  0  0  0  0  0  0
   -4.1680  -32.5640   -6.6030 C   0  0  0  0  0  0  0  0  0  0  0  0
   -5.8802  -37.9604  -12.4917 H   0  0  0  0  0  0  0  0  0  0  0  0
   -7.7091  -34.9334  -14.9310 H   0  0  0  0  0  0  0  0  0  0  0  0
   -9.0807  -36.6860  -16.0676 H   0  0  0  0  0  0  0  0  0  0  0  0
   -8.8501  -39.2043  -16.6554 H   0  0  0  0  0  0  0  0  0  0  0  0
   -9.6116  -41.2011  -15.0934 H   0  0  0  0  0  0  0  0  0  0  0  0
  -10.0636  -39.2289  -15.2687 H   0  0  0  0  0  0  0  0  0  0  0  0
   -6.5701  -40.2104  -12.7961 H   0  0  0  0  0  0  0  0  0  0  0  0
   -8.1826  -41.0828  -16.2554 H   0  0  0  0  0  0  0  0  0  0  0  0
   -4.7769  -34.4578   -9.5142 H   0  0  0  0  0  0  0  0  0  0  0  0
   -5.0552  -33.4772  -12.3837 H   0  0  0  0  0  0  0  0  0  0  0  0
   -5.2474  -34.5349   -2.8217 H   0  0  0  0  0  0  0  0  0  0  0  0
   -2.3520  -28.5393   -2.8509 H   0  0  0  0  0  0  0  0  0  0  0  0
   -2.8043  -28.8801   -5.2711 H   0  0  0  0  0  0  0  0  0  0  0  0
   -2.9748  -30.2485   -1.1623 H   0  0  0  0  0  0  0  0  0  0  0  0
   -4.7681  -36.2785  -11.7964 H   0  0  0  0  0  0  0  0  0  0  0  0
   -6.3227  -35.8909  -11.1654 H   0  0  0  0  0  0  0  0  0  0  0  0
   -5.6965  -31.8580  -10.2258 H   0  0  0  0  0  0  0  0  0  0  0  0
   -4.0517  -31.9391  -10.9470 H   0  0  0  0  0  0  0  0  0  0  0  0
   -4.6894  -32.1371   -0.1134 H   0  0  0  0  0  0  0  0  0  0  0  0
   -4.8681  -33.8753   -0.4506 H   0  0  0  0  0  0  0  0  0  0  0  0
   -3.2449  -33.1561   -0.3183 H   0  0  0  0  0  0  0  0  0  0  0  0
   -5.2123  -30.2515   -8.5576 H   0  0  0  0  0  0  0  0  0  0  0  0
   -3.6323  -30.0433   -9.3819 H   0  0  0  0  0  0  0  0  0  0  0  0
   -2.4772  -30.4953   -7.4069 H   0  0  0  0  0  0  0  0  0  0  0  0
   -3.7412  -29.2640   -7.0355 H   0  0  0  0  0  0  0  0  0  0  0  0
   -6.0409  -33.0995   -5.7367 H   0  0  0  0  0  0  0  0  0  0  0  0
   -4.8069  -34.4002   -5.7072 H   0  0  0  0  0  0  0  0  0  0  0  0
   -4.7841  -33.8075   -8.1604 H   0  0  0  0  0  0  0  0  0  0  0  0
   -5.8566  -32.4140   -7.8294 H   0  0  0  0  0  0  0  0  0  0  0  0
   -3.1482  -32.9487   -6.6169 H   0  0  0  0  0  0  0  0  0  0  0  0
  1  3  2  0  0  0  0
  2 11  1  0  0  0  0
  2 24  1  0  0  0  0
  3 20  1  0  0  0  0
  3 27  1  0  0  0  0
  4  5  2  0  0  0  0
  4 24  1  0  0  0  0
  4 43  1  0  0  0  0
  5 25  1  0  0  0  0
  5 42  1  0  0  0  0
  6  8  2  0  0  0  0
  6 11  1  0  0  0  0
  6 35  1  0  0  0  0
  7 11  2  0  0  0  0
  7 12  1  0  0  0  0
  7 34  1  0  0  0  0
  8 13  1  0  0  0  0
  8 36  1  0  0  0  0
  9 10  1  0  0  0  0
  9 14  2  0  0  0  0
  9 46  1  0  0  0  0
 10 16  2  0  0  0  0
 10 45  1  0  0  0  0
 12 13  2  0  0  0  0
 12 20  1  0  0  0  0
 13 28  1  0  0  0  0
 14 18  1  0  0  0  0
 14 22  1  0  0  0  0
 15 17  2  0  0  0  0
 15 18  1  0  0  0  0
 15 31  1  0  0  0  0
 16 19  1  0  0  0  0
 16 47  1  0  0  0  0
 17 23  1  0  0  0  0
 17 44  1  0  0  0  0
 18 19  2  0  0  0  0
 19 23  1  0  0  0  0
 20 40  1  0  0  0  0
 21 25  1  0  0  0  0
 21 29  1  0  0  0  0
 21 32  1  0  0  0  0
 22 30  1  0  0  0  0
 22 33  1  0  0  0  0
 23 26  1  0  0  0  0
 24 48  1  0  0  0  0
 24 49  1  0  0  0  0
 25 50  1  0  0  0  0
 25 51  1  0  0  0  0
 26 52  1  0  0  0  0
 26 53  1  0  0  0  0
 26 54  1  0  0  0  0
 27 28  1  0  0  0  0
 27 38  1  0  0  0  0
 27 41  1  0  0  0  0
 28 37  1  0  0  0  0
 28 39  1  0  0  0  0
 29 30  1  0  0  0  0
 29 55  1  0  0  0  0
 29 56  1  0  0  0  0
 30 57  1  0  0  0  0
 30 58  1  0  0  0  0
 31 33  1  0  0  0  0
 31 59  1  0  0  0  0
 31 60  1  0  0  0  0
 32 33  1  0  0  0  0
 32 61  1  0  0  0  0
 32 62  1  0  0  0  0
 33 63  1  0  0  0  0
M  END
$$$$
