obj01
  Mrv15b2302082602052D          

 35 39  0  0  0  0            999 V2000
   22.1245    6.1475    0.0000 O   0  0  0  0  0  0  0  0  0  0  0  0
   17.8377    6.1475    0.0000 O   0  0  0  0  0  0  0  0  0  0  0  0
   21.4101    6.5600    0.0000 C   0  0  0  0  0  0  0  0  0  0  0  0
   18.5522    7.3850    0.0000 C   0  0  0  0  0  0  0  0  0  0  0  0
   19.2667    6.1475    0.0000 C   0  0  0  0  0  0  0  0  0  0  0  0
   19.2667    7.7975    0.0000 C   0  0  0  0  0  0  0  0  0  0  0  0
   17.1233   -0.0400    0.0000 C   0  0  0  0  0  0  0  0  0  0  0  0
   17.1233   -0.8650    0.0000 C   0  0  0  0  0  0  0  0  0  0  0  0
   18.5522    6.5600    0.0000 C   0  0  0  0  0  0  0  0  0  0  0  0
   19.9811    6.5600    0.0000 C   0  0  0  0  0  0  0  0  0  0  0  0
   19.9811    7.3850    0.0000 C   0  0  0  0  0  0  0  0  0  0  0  0
   14.9097    0.2149    0.0000 C   0  0  0  0  0  0  0  0  0  0  0  0
   16.4088    0.3725    0.0000 C   0  0  0  0  0  0  0  0  0  0  0  0
   16.4088   -1.2775    0.0000 C   0  0  0  0  0  0  0  0  0  0  0  0
   14.4248   -0.4525    0.0000 C   0  0  0  0  0  0  0  0  0  0  0  0
   15.6943   -0.0400    0.0000 C   0  0  0  0  0  0  0  0  0  0  0  0
   15.6943   -0.8650    0.0000 C   0  0  0  0  0  0  0  0  0  0  0  0
   20.6956    6.1475    0.0000 N   0  0  0  0  0  0  0  0  0  0  0  0
   16.4088    1.1975    0.0000 N   0  0  0  0  0  0  0  0  0  0  0  0
   16.4088    2.8475    0.0000 N   0  0  0  0  0  0  0  0  0  0  0  0
   14.9097   -1.1199    0.0000 N   0  0  0  0  0  0  0  0  0  0  0  0
   13.8478   -2.0761    0.0000 C   0  0  0  0  0  0  0  0  0  0  0  0
   15.2068   -2.5177    0.0000 C   0  0  0  0  0  0  0  0  0  0  0  0
   17.8377    5.3225    0.0000 C   0  0  0  0  0  0  0  0  0  0  0  0
   21.4101    7.3850    0.0000 C   0  0  0  0  0  0  0  0  0  0  0  0
   20.6956    7.7975    0.0000 C   0  0  0  0  0  0  0  0  0  0  0  0
   15.6943    1.6100    0.0000 C   0  0  0  0  0  0  0  0  0  0  0  0
   17.1233    1.6100    0.0000 C   0  0  0  0  0  0  0  0  0  0  0  0
   15.6943    2.4350    0.0000 C   0  0  0  0  0  0  0  0  0  0  0  0
   17.1233    2.4350    0.0000 C   0  0  0  0  0  0  0  0  0  0  0  0
   16.4088    3.6725    0.0000 C   0  0  0  0  0  0  0  0  0  0  0  0
   17.1233    4.9100    0.0000 C   0  0  0  0  0  0  0  0  0  0  0  0
   17.1233    4.0850    0.0000 C   0  0  0  0  0  0  0  0  0  0  0  0
   14.6548   -1.9046    0.0000 C   0  0  0  0  0  0  0  0  0  0  0  0
   17.1233    3.2600    0.0000 H   0  0  0  0  0  0  0  0  0  0  0  0
  2  9  1  0  0  0  0
  1  3  2  0  0  0  0
  3 25  1  0  0  0  0
  4  6  4  0  0  0  0
  6 11  4  0  0  0  0
  7  8  4  0  0  0  0
  8 14  4  0  0  0  0
  4  9  4  0  0  0  0
  5  9  4  0  0  0  0
  5 10  4  0  0  0  0
 10 18  1  0  0  0  0
 10 11  4  0  0  0  0
 11 26  1  0  0  0  0
 12 16  4  0  0  0  0
  7 13  4  0  0  0  0
 13 19  1  0  0  0  0
 14 17  4  0  0  0  0
 12 15  4  0  0  0  0
 13 16  4  0  0  0  0
 16 17  4  0  0  0  0
  3 18  1  0  0  0  0
 19 27  1  0  0  0  0
 19 28  1  0  0  0  0
 20 30  1  0  0  0  0
 20 31  1  0  0  0  0
 15 21  4  0  0  0  0
 17 21  4  0  0  0  0
 22 34  1  0  0  0  0
  2 24  1  0  0  0  0
 25 26  1  0  0  0  0
 27 29  1  0  0  0  0
 20 29  1  0  0  0  0
 28 30  1  0  0  0  0
 31 33  1  0  0  0  0
 24 32  1  0  0  0  0
 32 33  1  0  0  0  0
 21 34  1  0  0  0  0
 23 34  1  0  0  0  0
 20 35  1  0  0  0  0
M  END
