@<TRIPOS>MOLECULE
obj01
 71 75 0 0 0
SMALL
GASTEIGER

@<TRIPOS>ATOM
      1 O          38.9790    6.6250  -25.3310 O.2     1  UNL1       -0.2755
      2 O          32.9790    3.9160  -22.9270 O.3     1  UNL1       -0.4919
      3 C          38.0980    5.7580  -25.4160 C.2     1  UNL1        0.2175
      4 C          33.9600    3.0000  -24.8880 C.ar    1  UNL1       -0.0196
      5 C          34.9840    4.8560  -23.7590 C.ar    1  UNL1        0.0016
      6 C          34.9600    3.0240  -25.8640 C.ar    1  UNL1       -0.0534
      7 C          32.5460    6.5280  -14.1170 C.ar    1  UNL1       -0.0399
      8 C          32.8230    6.9540  -12.8500 C.ar    1  UNL1       -0.0580
      9 C          33.9730    3.9180  -23.8660 C.ar    1  UNL1        0.1223
     10 C          35.9720    4.8770  -24.7450 C.ar    1  UNL1        0.0400
     11 C          35.9610    3.9750  -25.8030 C.ar    1  UNL1       -0.0255
     12 C          28.9270    5.9980  -13.5580 C.ar    1  UNL1       -0.0347
     13 C          31.2640    6.1770  -14.4920 C.ar    1  UNL1        0.0393
     14 C          31.8530    7.0360  -11.9070 C.ar    1  UNL1       -0.0375
     15 C          28.4360    6.2520  -12.3320 C.ar    1  UNL1        0.0061
     16 C          30.2810    6.2590  -13.5470 C.ar    1  UNL1        0.0209
     17 C          30.5780    6.6880  -12.2550 C.ar    1  UNL1        0.0511
     18 N          36.9880    5.8280  -24.6390 N.am    1  UNL1       -0.2851
     19 N          31.0680    5.7270  -15.8260 N.pl3   1  UNL1       -0.3193
     20 N          30.7130    5.6650  -18.5940 N.4     1  UNL1        0.2374
     21 N          29.4310    6.6720  -11.5410 N.ar    1  UNL1       -0.3441
     22 C          30.3430    6.3020   -9.2850 C.3     1  UNL1       -0.0445
     23 C          27.9610    6.8440   -9.5520 C.3     1  UNL1       -0.0445
     24 C          32.5030    5.1740  -22.7570 C.3     1  UNL1        0.0898
     25 C          38.2960    4.5910  -26.3190 C.3     1  UNL1        0.0283
     26 C          37.0000    4.1110  -26.8770 C.3     1  UNL1       -0.0177
     27 C          32.0920    6.2070  -16.7600 C.3     1  UNL1        0.0525
     28 C          29.7190    5.7780  -16.4190 C.3     1  UNL1        0.0525
     29 C          32.0250    5.5030  -18.0180 C.3     1  UNL1       -0.0158
     30 C          29.6840    5.0960  -17.7310 C.3     1  UNL1       -0.0158
     31 C          30.7520    5.0940  -19.8490 C.3     1  UNL1       -0.0317
     32 C          32.6890    5.4660  -21.3640 C.3     1  UNL1       -0.0138
     33 C          31.4760    6.0610  -20.7450 C.3     1  UNL1       -0.0094
     34 C          29.3540    7.0800  -10.1160 C.3     1  UNL1        0.0289
     35 H          33.2108    2.2918  -24.9351 H       1  UNL1        0.0654
     36 H          35.0073    5.5224  -22.9714 H       1  UNL1        0.0673
     37 H          34.9510    2.3321  -26.6297 H       1  UNL1        0.0622
     38 H          33.3098    6.4670  -14.8084 H       1  UNL1        0.0636
     39 H          33.7900    7.2188  -12.6054 H       1  UNL1        0.0619
     40 H          28.3830    5.6645  -14.3691 H       1  UNL1        0.0639
     41 H          32.0718    7.3534  -10.9497 H       1  UNL1        0.0638
     42 H          27.4504    6.1410  -12.0468 H       1  UNL1        0.0809
     43 H          36.8977    6.5622  -23.9893 H       1  UNL1        0.1548
     44 H          30.4630    6.6500  -18.6814 H       1  UNL1        0.2034
     45 H          31.3301    6.4564   -9.6680 H       1  UNL1        0.0249
     46 H          30.1029    5.2601   -9.3274 H       1  UNL1        0.0249
     47 H          30.2977    6.6374   -8.2699 H       1  UNL1        0.0249
     48 H          27.9357    7.1465   -8.5260 H       1  UNL1        0.0249
     49 H          27.7188    5.8042   -9.6233 H       1  UNL1        0.0249
     50 H          27.2488    7.4152  -10.1100 H       1  UNL1        0.0249
     51 H          31.4653    5.2197  -23.0139 H       1  UNL1        0.0696
     52 H          33.0089    5.8792  -23.3828 H       1  UNL1        0.0696
     53 H          38.7530    3.7967  -25.7667 H       1  UNL1        0.0362
     54 H          38.9212    4.8958  -27.1321 H       1  UNL1        0.0362
     55 H          36.6551    4.8110  -27.6090 H       1  UNL1        0.0318
     56 H          37.1578    3.1490  -27.3180 H       1  UNL1        0.0318
     57 H          33.0583    6.0548  -16.3263 H       1  UNL1        0.0516
     58 H          31.9199    7.2467  -16.9450 H       1  UNL1        0.0516
     59 H          29.4340    6.8010  -16.5500 H       1  UNL1        0.0516
     60 H          29.0405    5.2781  -15.7597 H       1  UNL1        0.0516
     61 H          32.2162    4.4630  -17.8546 H       1  UNL1        0.0830
     62 H          32.7585    5.9013  -18.6875 H       1  UNL1        0.0830
     63 H          29.8678    4.0506  -17.5961 H       1  UNL1        0.0830
     64 H          28.7225    5.2303  -18.1808 H       1  UNL1        0.0830
     65 H          29.7582    4.9307  -20.2103 H       1  UNL1        0.0814
     66 H          31.2500    4.1473  -19.8244 H       1  UNL1        0.0814
     67 H          33.5006    6.1559  -21.2625 H       1  UNL1        0.0300
     68 H          32.8941    4.5441  -20.8611 H       1  UNL1        0.0300
     69 H          31.7687    6.9118  -20.1659 H       1  UNL1        0.0318
     70 H          30.8084    6.3333  -21.5356 H       1  UNL1        0.0318
     71 H          29.5836    8.1242  -10.0738 H       1  UNL1        0.0522
@<TRIPOS>BOND
     1     2     9    1
     2     1     3    2
     3     3    25    1
     4     4     6   ar
     5     6    11   ar
     6     7     8   ar
     7     8    14   ar
     8     4     9   ar
     9     5     9   ar
    10     5    10   ar
    11    10    18    1
    12    10    11   ar
    13    11    26    1
    14    12    16   ar
    15     7    13   ar
    16    13    19    1
    17    14    17   ar
    18    12    15   ar
    19    13    16   ar
    20    16    17   ar
    21     3    18   am
    22    19    27    1
    23    19    28    1
    24    20    30    1
    25    20    31    1
    26    15    21   ar
    27    17    21   ar
    28    22    34    1
    29     2    24    1
    30    25    26    1
    31    27    29    1
    32    20    29    1
    33    28    30    1
    34    31    33    1
    35    24    32    1
    36    32    33    1
    37    21    34    1
    38    23    34    1
    39     4    35    1
    40     5    36    1
    41     6    37    1
    42     7    38    1
    43     8    39    1
    44    12    40    1
    45    14    41    1
    46    15    42    1
    47    18    43    1
    48    20    44    1
    49    22    45    1
    50    22    46    1
    51    22    47    1
    52    23    48    1
    53    23    49    1
    54    23    50    1
    55    24    51    1
    56    24    52    1
    57    25    53    1
    58    25    54    1
    59    26    55    1
    60    26    56    1
    61    27    57    1
    62    27    58    1
    63    28    59    1
    64    28    60    1
    65    29    61    1
    66    29    62    1
    67    30    63    1
    68    30    64    1
    69    31    65    1
    70    31    66    1
    71    32    67    1
    72    32    68    1
    73    33    69    1
    74    33    70    1
    75    34    71    1
