obj01
 OpenBabel02082602053D

 71 75  0  0  0  0  0  0  0  0999 V2000
   38.9790    6.6250  -25.3310 O   0  0  0  0  0  0  0  0  0  0  0  0
   32.9790    3.9160  -22.9270 O   0  0  0  0  0  0  0  0  0  0  0  0
   38.0980    5.7580  -25.4160 C   0  0  0  0  0  0  0  0  0  0  0  0
   33.9600    3.0000  -24.8880 C   0  0  0  0  0  0  0  0  0  0  0  0
   34.9840    4.8560  -23.7590 C   0  0  0  0  0  0  0  0  0  0  0  0
   34.9600    3.0240  -25.8640 C   0  0  0  0  0  0  0  0  0  0  0  0
   32.5460    6.5280  -14.1170 C   0  0  0  0  0  0  0  0  0  0  0  0
   32.8230    6.9540  -12.8500 C   0  0  0  0  0  0  0  0  0  0  0  0
   33.9730    3.9180  -23.8660 C   0  0  0  0  0  0  0  0  0  0  0  0
   35.9720    4.8770  -24.7450 C   0  0  0  0  0  0  0  0  0  0  0  0
   35.9610    3.9750  -25.8030 C   0  0  0  0  0  0  0  0  0  0  0  0
   28.9270    5.9980  -13.5580 C   0  0  0  0  0  0  0  0  0  0  0  0
   31.2640    6.1770  -14.4920 C   0  0  0  0  0  0  0  0  0  0  0  0
   31.8530    7.0360  -11.9070 C   0  0  0  0  0  0  0  0  0  0  0  0
   28.4360    6.2520  -12.3320 C   0  0  0  0  0  0  0  0  0  0  0  0
   30.2810    6.2590  -13.5470 C   0  0  0  0  0  0  0  0  0  0  0  0
   30.5780    6.6880  -12.2550 C   0  0  0  0  0  0  0  0  0  0  0  0
   36.9880    5.8280  -24.6390 N   0  0  0  0  0  0  0  0  0  0  0  0
   31.0680    5.7270  -15.8260 N   0  0  0  0  0  0  0  0  0  0  0  0
   30.7130    5.6650  -18.5940 N   0  3  0  0  0  0  0  0  0  0  0  0
   29.4310    6.6720  -11.5410 N   0  0  0  0  0  0  0  0  0  0  0  0
   30.3430    6.3020   -9.2850 C   0  0  0  0  0  0  0  0  0  0  0  0
   27.9610    6.8440   -9.5520 C   0  0  0  0  0  0  0  0  0  0  0  0
   32.5030    5.1740  -22.7570 C   0  0  0  0  0  0  0  0  0  0  0  0
   38.2960    4.5910  -26.3190 C   0  0  0  0  0  0  0  0  0  0  0  0
   37.0000    4.1110  -26.8770 C   0  0  0  0  0  0  0  0  0  0  0  0
   32.0920    6.2070  -16.7600 C   0  0  0  0  0  0  0  0  0  0  0  0
   29.7190    5.7780  -16.4190 C   0  0  0  0  0  0  0  0  0  0  0  0
   32.0250    5.5030  -18.0180 C   0  0  0  0  0  0  0  0  0  0  0  0
   29.6840    5.0960  -17.7310 C   0  0  0  0  0  0  0  0  0  0  0  0
   30.7520    5.0940  -19.8490 C   0  0  0  0  0  0  0  0  0  0  0  0
   32.6890    5.4660  -21.3640 C   0  0  0  0  0  0  0  0  0  0  0  0
   31.4760    6.0610  -20.7450 C   0  0  0  0  0  0  0  0  0  0  0  0
   29.3540    7.0800  -10.1160 C   0  0  0  0  0  0  0  0  0  0  0  0
   33.2108    2.2918  -24.9351 H   0  0  0  0  0  0  0  0  0  0  0  0
   35.0073    5.5224  -22.9714 H   0  0  0  0  0  0  0  0  0  0  0  0
   34.9510    2.3321  -26.6297 H   0  0  0  0  0  0  0  0  0  0  0  0
   33.3098    6.4670  -14.8084 H   0  0  0  0  0  0  0  0  0  0  0  0
   33.7900    7.2188  -12.6054 H   0  0  0  0  0  0  0  0  0  0  0  0
   28.3830    5.6645  -14.3691 H   0  0  0  0  0  0  0  0  0  0  0  0
   32.0718    7.3534  -10.9497 H   0  0  0  0  0  0  0  0  0  0  0  0
   27.4504    6.1410  -12.0468 H   0  0  0  0  0  0  0  0  0  0  0  0
   36.8977    6.5622  -23.9893 H   0  0  0  0  0  0  0  0  0  0  0  0
   30.4630    6.6500  -18.6814 H   0  0  0  0  0  0  0  0  0  0  0  0
   31.3301    6.4564   -9.6680 H   0  0  0  0  0  0  0  0  0  0  0  0
   30.1029    5.2601   -9.3274 H   0  0  0  0  0  0  0  0  0  0  0  0
   30.2977    6.6374   -8.2699 H   0  0  0  0  0  0  0  0  0  0  0  0
   27.9357    7.1465   -8.5260 H   0  0  0  0  0  0  0  0  0  0  0  0
   27.7188    5.8042   -9.6233 H   0  0  0  0  0  0  0  0  0  0  0  0
   27.2488    7.4152  -10.1100 H   0  0  0  0  0  0  0  0  0  0  0  0
   31.4653    5.2197  -23.0139 H   0  0  0  0  0  0  0  0  0  0  0  0
   33.0089    5.8792  -23.3828 H   0  0  0  0  0  0  0  0  0  0  0  0
   38.7530    3.7967  -25.7667 H   0  0  0  0  0  0  0  0  0  0  0  0
   38.9212    4.8958  -27.1321 H   0  0  0  0  0  0  0  0  0  0  0  0
   36.6551    4.8110  -27.6090 H   0  0  0  0  0  0  0  0  0  0  0  0
   37.1578    3.1490  -27.3180 H   0  0  0  0  0  0  0  0  0  0  0  0
   33.0583    6.0548  -16.3263 H   0  0  0  0  0  0  0  0  0  0  0  0
   31.9199    7.2467  -16.9450 H   0  0  0  0  0  0  0  0  0  0  0  0
   29.4340    6.8010  -16.5500 H   0  0  0  0  0  0  0  0  0  0  0  0
   29.0405    5.2781  -15.7597 H   0  0  0  0  0  0  0  0  0  0  0  0
   32.2162    4.4630  -17.8546 H   0  0  0  0  0  0  0  0  0  0  0  0
   32.7585    5.9013  -18.6875 H   0  0  0  0  0  0  0  0  0  0  0  0
   29.8678    4.0506  -17.5961 H   0  0  0  0  0  0  0  0  0  0  0  0
   28.7225    5.2303  -18.1808 H   0  0  0  0  0  0  0  0  0  0  0  0
   29.7582    4.9307  -20.2103 H   0  0  0  0  0  0  0  0  0  0  0  0
   31.2500    4.1473  -19.8244 H   0  0  0  0  0  0  0  0  0  0  0  0
   33.5006    6.1559  -21.2625 H   0  0  0  0  0  0  0  0  0  0  0  0
   32.8941    4.5441  -20.8611 H   0  0  0  0  0  0  0  0  0  0  0  0
   31.7687    6.9118  -20.1659 H   0  0  0  0  0  0  0  0  0  0  0  0
   30.8084    6.3333  -21.5356 H   0  0  0  0  0  0  0  0  0  0  0  0
   29.5836    8.1242  -10.0738 H   0  0  0  0  0  0  0  0  0  0  0  0
  1  3  2  0  0  0  0
  2  9  1  0  0  0  0
  2 24  1  0  0  0  0
  3 25  1  0  0  0  0
  3 18  1  0  0  0  0
  4  6  2  0  0  0  0
  4  9  1  0  0  0  0
  4 35  1  0  0  0  0
  5  9  2  0  0  0  0
  5 10  1  0  0  0  0
  5 36  1  0  0  0  0
  6 11  1  0  0  0  0
  6 37  1  0  0  0  0
  7  8  2  0  0  0  0
  7 13  1  0  0  0  0
  7 38  1  0  0  0  0
  8 14  1  0  0  0  0
  8 39  1  0  0  0  0
 10 18  1  0  0  0  0
 10 11  2  0  0  0  0
 11 26  1  0  0  0  0
 12 16  1  0  0  0  0
 12 15  2  0  0  0  0
 12 40  1  0  0  0  0
 13 19  1  0  0  0  0
 13 16  2  0  0  0  0
 14 17  2  0  0  0  0
 14 41  1  0  0  0  0
 15 21  1  0  0  0  0
 15 42  1  0  0  0  0
 16 17  1  0  0  0  0
 17 21  1  0  0  0  0
 18 43  1  0  0  0  0
 19 27  1  0  0  0  0
 19 28  1  0  0  0  0
 20 30  1  0  0  0  0
 20 31  1  0  0  0  0
 20 29  1  0  0  0  0
 20 44  1  0  0  0  0
 21 34  1  0  0  0  0
 22 34  1  0  0  0  0
 22 45  1  0  0  0  0
 22 46  1  0  0  0  0
 22 47  1  0  0  0  0
 23 34  1  0  0  0  0
 23 48  1  0  0  0  0
 23 49  1  0  0  0  0
 23 50  1  0  0  0  0
 24 32  1  0  0  0  0
 24 51  1  0  0  0  0
 24 52  1  0  0  0  0
 25 26  1  0  0  0  0
 25 53  1  0  0  0  0
 25 54  1  0  0  0  0
 26 55  1  0  0  0  0
 26 56  1  0  0  0  0
 27 29  1  0  0  0  0
 27 57  1  0  0  0  0
 27 58  1  0  0  0  0
 28 30  1  0  0  0  0
 28 59  1  0  0  0  0
 28 60  1  0  0  0  0
 29 61  1  0  0  0  0
 29 62  1  0  0  0  0
 30 63  1  0  0  0  0
 30 64  1  0  0  0  0
 31 33  1  0  0  0  0
 31 65  1  0  0  0  0
 31 66  1  0  0  0  0
 32 33  1  0  0  0  0
 32 67  1  0  0  0  0
 32 68  1  0  0  0  0
 33 69  1  0  0  0  0
 33 70  1  0  0  0  0
 34 71  1  0  0  0  0
M  CHG  1  20   1
M  END
$$$$
