obj01
 OpenBabel02082601543D

 64 69  0  0  1  0  0  0  0  0999 V2000
   -7.5730  -42.1450  -13.8860 O   0  0  0  0  0  0  0  0  0  0  0  0
   -6.0450  -35.3890  -13.0430 O   0  0  0  0  0  0  0  0  0  0  0  0
   -7.7810  -41.0060  -14.2210 C   0  0  0  0  0  0  0  0  0  0  0  0
   -5.1480  -34.1850  -11.5600 C   0  0  0  0  0  0  0  0  0  0  0  0
   -4.8760  -33.7640  -10.3490 C   0  0  0  0  0  0  0  0  0  0  0  0
   -7.6140  -35.9820  -14.6490 C   0  0  0  0  0  0  0  0  0  0  0  0
   -6.5820  -37.6880  -13.2800 C   0  0  0  0  0  0  0  0  0  0  0  0
   -8.3720  -36.9600  -15.2860 C   0  0  0  0  0  0  0  0  0  0  0  0
   -3.0790  -29.6480   -4.5480 C   0  0  0  0  0  0  0  0  0  0  0  0
   -2.8320  -29.4620   -3.1770 C   0  0  0  0  0  0  0  0  0  0  0  0
   -6.7430  -36.3650  -13.6570 C   0  0  0  0  0  0  0  0  0  0  0  0
   -7.3400  -38.6690  -13.9330 C   0  0  0  0  0  0  0  0  0  0  0  0
   -8.2150  -38.2910  -14.9140 C   0  0  0  0  0  0  0  0  0  0  0  0
   -3.6890  -30.8470   -4.9700 C   0  0  0  0  0  0  0  0  0  0  0  0
   -4.6330  -32.9520   -4.2250 C   0  0  0  0  0  0  0  0  0  0  0  0
   -3.1770  -30.4110   -2.2210 C   0  0  0  0  0  0  0  0  0  0  0  0
   -4.7940  -33.5610   -3.0060 C   0  0  0  0  0  0  0  0  0  0  0  0
   -4.0180  -31.7430   -3.9840 C   0  0  0  0  0  0  0  0  0  0  0  0
   -3.7910  -31.5770   -2.6700 C   0  0  0  0  0  0  0  0  0  0  0  0
   -7.1740  -39.9930  -13.5760 N   0  0  0  0  0  0  0  0  0  0  0  0
   -4.1580  -32.0080   -8.9100 N   0  3  1  0  0  0  0  0  0  0  0  0
   -4.0330  -31.1370   -6.2730 N   0  0  0  0  0  0  0  0  0  0  0  0
   -4.2760  -32.7110   -2.0650 N   0  0  0  0  0  0  0  0  0  0  0  0
   -5.5650  -35.5380  -11.8650 C   0  0  0  0  0  0  0  0  0  0  0  0
   -4.7110  -32.3200  -10.1670 C   0  0  0  0  0  0  0  0  0  0  0  0
   -4.2690  -32.9870   -0.6510 C   0  0  0  0  0  0  0  0  0  0  0  0
   -8.6720  -40.7140  -15.3540 C   0  0  0  0  0  0  0  0  0  0  0  0
   -9.0300  -39.3550  -15.5910 C   0  0  0  0  0  0  0  0  0  0  0  0
   -4.1740  -30.5800   -8.6030 C   0  0  0  0  0  0  0  0  0  0  0  0
   -3.5450  -30.3020   -7.3040 C   0  0  0  0  0  0  0  0  0  0  0  0
   -4.9880  -33.3330   -5.5790 C   0  0  0  0  0  0  0  0  0  0  0  0
   -4.8220  -32.7500   -7.8990 C   0  0  0  0  0  0  0  0  0  0  0  0
   -4.1680  -32.5640   -6.6030 C   0  0  1  0  0  0  0  0  0  0  0  0
   -5.0601  -33.5149  -12.3399 H   0  0  0  0  0  0  0  0  0  0  0  0
   -4.7822  -34.4209   -9.5586 H   0  0  0  0  0  0  0  0  0  0  0  0
   -7.7040  -34.9892  -14.9160 H   0  0  0  0  0  0  0  0  0  0  0  0
   -5.9176  -37.9459  -12.5337 H   0  0  0  0  0  0  0  0  0  0  0  0
   -9.0430  -36.7006  -16.0260 H   0  0  0  0  0  0  0  0  0  0  0  0
   -2.8189  -28.9209   -5.2326 H   0  0  0  0  0  0  0  0  0  0  0  0
   -2.3776  -28.5884   -2.8682 H   0  0  0  0  0  0  0  0  0  0  0  0
   -2.9855  -30.2571   -1.2187 H   0  0  0  0  0  0  0  0  0  0  0  0
   -5.2233  -34.4831   -2.8315 H   0  0  0  0  0  0  0  0  0  0  0  0
   -6.5854  -40.2049  -12.8158 H   0  0  0  0  0  0  0  0  0  0  0  0
   -3.1732  -32.2714   -8.9440 H   0  0  0  0  0  0  0  0  0  0  0  0
   -4.7359  -36.2143  -11.8617 H   0  0  0  0  0  0  0  0  0  0  0  0
   -6.2524  -35.9560  -11.1595 H   0  0  0  0  0  0  0  0  0  0  0  0
   -5.6684  -31.8494  -10.2500 H   0  0  0  0  0  0  0  0  0  0  0  0
   -4.0398  -31.9657  -10.9212 H   0  0  0  0  0  0  0  0  0  0  0  0
   -4.7114  -33.9447   -0.4724 H   0  0  0  0  0  0  0  0  0  0  0  0
   -4.8296  -32.2338   -0.1378 H   0  0  0  0  0  0  0  0  0  0  0  0
   -3.2608  -32.9874   -0.2927 H   0  0  0  0  0  0  0  0  0  0  0  0
   -9.5790  -41.2587  -15.1940 H   0  0  0  0  0  0  0  0  0  0  0  0
   -8.1069  -40.9959  -16.2178 H   0  0  0  0  0  0  0  0  0  0  0  0
   -8.9635  -39.1861  -16.6455 H   0  0  0  0  0  0  0  0  0  0  0  0
  -10.0086  -39.2554  -15.1699 H   0  0  0  0  0  0  0  0  0  0  0  0
   -5.1886  -30.2410   -8.5778 H   0  0  0  0  0  0  0  0  0  0  0  0
   -3.6201  -30.0670   -9.3612 H   0  0  0  0  0  0  0  0  0  0  0  0
   -2.4895  -30.4519   -7.3954 H   0  0  0  0  0  0  0  0  0  0  0  0
   -3.7792  -29.2917   -7.0405 H   0  0  0  0  0  0  0  0  0  0  0  0
   -6.0259  -33.1272   -5.7381 H   0  0  0  0  0  0  0  0  0  0  0  0
   -4.7859  -34.3768   -5.6999 H   0  0  0  0  0  0  0  0  0  0  0  0
   -4.8023  -33.7885   -8.1560 H   0  0  0  0  0  0  0  0  0  0  0  0
   -5.8316  -32.4032   -7.8264 H   0  0  0  0  0  0  0  0  0  0  0  0
   -3.1669  -32.9416   -6.6167 H   0  0  0  0  0  0  0  0  0  0  0  0
  1  3  2  0  0  0  0
  2 11  1  0  0  0  0
  2 24  1  0  0  0  0
  3 20  1  0  0  0  0
  3 27  1  0  0  0  0
  4  5  2  0  0  0  0
  4 24  1  0  0  0  0
  4 34  1  0  0  0  0
  5 25  1  0  0  0  0
  5 35  1  0  0  0  0
  6  8  2  0  0  0  0
  6 11  1  0  0  0  0
  6 36  1  0  0  0  0
  7 11  2  0  0  0  0
  7 12  1  0  0  0  0
  7 37  1  0  0  0  0
  8 13  1  0  0  0  0
  8 38  1  0  0  0  0
  9 10  2  0  0  0  0
  9 14  1  0  0  0  0
  9 39  1  0  0  0  0
 10 16  1  0  0  0  0
 10 40  1  0  0  0  0
 12 13  2  0  0  0  0
 12 20  1  0  0  0  0
 13 28  1  0  0  0  0
 14 18  2  0  0  0  0
 14 22  1  0  0  0  0
 15 17  2  0  0  0  0
 15 18  1  0  0  0  0
 15 31  1  0  0  0  0
 16 19  2  0  0  0  0
 16 41  1  0  0  0  0
 17 23  1  0  0  0  0
 17 42  1  0  0  0  0
 18 19  1  0  0  0  0
 19 23  1  0  0  0  0
 20 43  1  0  0  0  0
 21 25  1  0  0  0  0
 21 29  1  0  0  0  0
 21 32  1  0  0  0  0
 21 44  1  6  0  0  0
 22 30  1  0  0  0  0
 22 33  1  0  0  0  0
 23 26  1  0  0  0  0
 24 45  1  0  0  0  0
 24 46  1  0  0  0  0
 25 47  1  0  0  0  0
 25 48  1  0  0  0  0
 26 49  1  0  0  0  0
 26 50  1  0  0  0  0
 26 51  1  0  0  0  0
 27 28  1  0  0  0  0
 27 52  1  0  0  0  0
 27 53  1  0  0  0  0
 28 54  1  0  0  0  0
 28 55  1  0  0  0  0
 29 30  1  0  0  0  0
 29 56  1  0  0  0  0
 29 57  1  0  0  0  0
 30 58  1  0  0  0  0
 30 59  1  0  0  0  0
 31 33  1  0  0  0  0
 31 60  1  0  0  0  0
 31 61  1  0  0  0  0
 32 33  1  0  0  0  0
 32 62  1  0  0  0  0
 32 63  1  0  0  0  0
 33 64  1  6  0  0  0
M  CHG  1  21   1
M  END
$$$$
