@<TRIPOS>MOLECULE
obj01
 64 69 0 0 0
SMALL
GASTEIGER

@<TRIPOS>ATOM
      1 O          -7.5730  -42.1450  -13.8860 O.2     1  UNL1       -0.2755
      2 O          -6.0450  -35.3890  -13.0430 O.3     1  UNL1       -0.4879
      3 C          -7.7810  -41.0060  -14.2210 C.2     1  UNL1        0.2175
      4 C          -5.1480  -34.1850  -11.5600 C.2     1  UNL1       -0.0461
      5 C          -4.8760  -33.7640  -10.3490 C.2     1  UNL1       -0.0402
      6 C          -7.6140  -35.9820  -14.6490 C.ar    1  UNL1       -0.0196
      7 C          -6.5820  -37.6880  -13.2800 C.ar    1  UNL1        0.0016
      8 C          -8.3720  -36.9600  -15.2860 C.ar    1  UNL1       -0.0534
      9 C          -3.0790  -29.6480   -4.5480 C.ar    1  UNL1       -0.0399
     10 C          -2.8320  -29.4620   -3.1770 C.ar    1  UNL1       -0.0580
     11 C          -6.7430  -36.3650  -13.6570 C.ar    1  UNL1        0.1227
     12 C          -7.3400  -38.6690  -13.9330 C.ar    1  UNL1        0.0400
     13 C          -8.2150  -38.2910  -14.9140 C.ar    1  UNL1       -0.0255
     14 C          -3.6890  -30.8470   -4.9700 C.ar    1  UNL1        0.0398
     15 C          -4.6330  -32.9520   -4.2250 C.ar    1  UNL1       -0.0184
     16 C          -3.1770  -30.4110   -2.2210 C.ar    1  UNL1       -0.0375
     17 C          -4.7940  -33.5610   -3.0060 C.ar    1  UNL1        0.0087
     18 C          -4.0180  -31.7430   -3.9840 C.ar    1  UNL1        0.0241
     19 C          -3.7910  -31.5770   -2.6700 C.ar    1  UNL1        0.0509
     20 N          -7.1740  -39.9930  -13.5760 N.am    1  UNL1       -0.2851
     21 N          -4.1580  -32.0080   -8.9100 N.4     1  UNL1        0.2405
     22 N          -4.0330  -31.1370   -6.2730 N.pl3   1  UNL1       -0.3159
     23 N          -4.2760  -32.7110   -2.0650 N.ar    1  UNL1       -0.3494
     24 C          -5.5650  -35.5380  -11.8650 C.3     1  UNL1        0.1080
     25 C          -4.7110  -32.3200  -10.1670 C.3     1  UNL1       -0.0128
     26 C          -4.2690  -32.9870   -0.6510 C.3     1  UNL1        0.0119
     27 C          -8.6720  -40.7140  -15.3540 C.3     1  UNL1        0.0283
     28 C          -9.0300  -39.3550  -15.5910 C.3     1  UNL1       -0.0177
     29 C          -4.1740  -30.5800   -8.6030 C.3     1  UNL1       -0.0154
     30 C          -3.5450  -30.3020   -7.3040 C.3     1  UNL1        0.0528
     31 C          -4.9880  -33.3330   -5.5790 C.3     1  UNL1       -0.0021
     32 C          -4.8220  -32.7500   -7.8990 C.3     1  UNL1       -0.0122
     33 C          -4.1680  -32.5640   -6.6030 C.3     1  UNL1        0.0676
     34 H          -5.0601  -33.5149  -12.3399 H       1  UNL1        0.0604
     35 H          -4.7822  -34.4209   -9.5586 H       1  UNL1        0.0623
     36 H          -7.7040  -34.9892  -14.9160 H       1  UNL1        0.0654
     37 H          -5.9176  -37.9459  -12.5337 H       1  UNL1        0.0673
     38 H          -9.0430  -36.7006  -16.0260 H       1  UNL1        0.0622
     39 H          -2.8189  -28.9209   -5.2326 H       1  UNL1        0.0636
     40 H          -2.3776  -28.5884   -2.8682 H       1  UNL1        0.0619
     41 H          -2.9855  -30.2571   -1.2187 H       1  UNL1        0.0638
     42 H          -5.2233  -34.4831   -2.8315 H       1  UNL1        0.0812
     43 H          -6.5854  -40.2049  -12.8158 H       1  UNL1        0.1548
     44 H          -3.1732  -32.2714   -8.9440 H       1  UNL1        0.2038
     45 H          -4.7359  -36.2143  -11.8617 H       1  UNL1        0.0742
     46 H          -6.2524  -35.9560  -11.1595 H       1  UNL1        0.0742
     47 H          -5.6684  -31.8494  -10.2500 H       1  UNL1        0.0861
     48 H          -4.0398  -31.9657  -10.9212 H       1  UNL1        0.0861
     49 H          -4.7114  -33.9447   -0.4724 H       1  UNL1        0.0456
     50 H          -4.8296  -32.2338   -0.1378 H       1  UNL1        0.0456
     51 H          -3.2608  -32.9874   -0.2927 H       1  UNL1        0.0456
     52 H          -9.5790  -41.2587  -15.1940 H       1  UNL1        0.0362
     53 H          -8.1069  -40.9959  -16.2178 H       1  UNL1        0.0362
     54 H          -8.9635  -39.1861  -16.6455 H       1  UNL1        0.0318
     55 H         -10.0086  -39.2554  -15.1699 H       1  UNL1        0.0318
     56 H          -5.1886  -30.2410   -8.5778 H       1  UNL1        0.0830
     57 H          -3.6201  -30.0670   -9.3612 H       1  UNL1        0.0830
     58 H          -2.4895  -30.4519   -7.3954 H       1  UNL1        0.0517
     59 H          -3.7792  -29.2917   -7.0405 H       1  UNL1        0.0517
     60 H          -6.0259  -33.1272   -5.7381 H       1  UNL1        0.0334
     61 H          -4.7859  -34.3768   -5.6999 H       1  UNL1        0.0334
     62 H          -4.8023  -33.7885   -8.1560 H       1  UNL1        0.0833
     63 H          -5.8316  -32.4032   -7.8264 H       1  UNL1        0.0833
     64 H          -3.1669  -32.9416   -6.6167 H       1  UNL1        0.0556
@<TRIPOS>BOND
     1     1     3    2
     2     2    11    1
     3     2    24    1
     4     3    20   am
     5     3    27    1
     6     4     5    2
     7     4    24    1
     8     5    25    1
     9     6     8   ar
    10     6    11   ar
    11     7    11   ar
    12     7    12   ar
    13     8    13   ar
    14     9    10   ar
    15     9    14   ar
    16    10    16   ar
    17    12    13   ar
    18    12    20    1
    19    13    28    1
    20    14    18   ar
    21    14    22    1
    22    15    17   ar
    23    15    18   ar
    24    15    31    1
    25    16    19   ar
    26    17    23   ar
    27    18    19   ar
    28    19    23   ar
    29    21    25    1
    30    21    29    1
    31    21    32    1
    32    22    30    1
    33    22    33    1
    34    23    26    1
    35    27    28    1
    36    29    30    1
    37    31    33    1
    38    32    33    1
    39     4    34    1
    40     5    35    1
    41     6    36    1
    42     7    37    1
    43     8    38    1
    44     9    39    1
    45    10    40    1
    46    16    41    1
    47    17    42    1
    48    20    43    1
    49    21    44    1
    50    24    45    1
    51    24    46    1
    52    25    47    1
    53    25    48    1
    54    26    49    1
    55    26    50    1
    56    26    51    1
    57    27    52    1
    58    27    53    1
    59    28    54    1
    60    28    55    1
    61    29    56    1
    62    29    57    1
    63    30    58    1
    64    30    59    1
    65    31    60    1
    66    31    61    1
    67    32    62    1
    68    32    63    1
    69    33    64    1
