obj01
  Mrv15b2302082601542D          

 34 39  0  0  0  0            999 V2000
   -4.1820  -23.3981    0.0000 O   0  0  0  0  0  0  0  0  0  0  0  0
   -2.0386  -19.6856    0.0000 O   0  0  0  0  0  0  0  0  0  0  0  0
   -3.4675  -22.9856    0.0000 C   0  0  0  0  0  0  0  0  0  0  0  0
   -1.3241  -18.4481    0.0000 C   0  0  0  0  0  0  0  0  0  0  0  0
   -0.6097  -18.0356    0.0000 C   0  0  0  0  0  0  0  0  0  0  0  0
   -1.3241  -20.9231    0.0000 C   0  0  0  0  0  0  0  0  0  0  0  0
   -2.7531  -20.9231    0.0000 C   0  0  0  0  0  0  0  0  0  0  0  0
   -1.3241  -21.7481    0.0000 C   0  0  0  0  0  0  0  0  0  0  0  0
   -3.7404  -14.6141    0.0000 C   0  0  0  0  0  0  0  0  0  0  0  0
   -4.5251  -14.3592    0.0000 C   0  0  0  0  0  0  0  0  0  0  0  0
   -2.0386  -20.5106    0.0000 C   0  0  0  0  0  0  0  0  0  0  0  0
   -2.7531  -21.7481    0.0000 C   0  0  0  0  0  0  0  0  0  0  0  0
   -2.0386  -22.1606    0.0000 C   0  0  0  0  0  0  0  0  0  0  0  0
   -3.5689  -15.4211    0.0000 C   0  0  0  0  0  0  0  0  0  0  0  0
   -4.1820  -16.7981    0.0000 C   0  0  0  0  0  0  0  0  0  0  0  0
   -5.1382  -14.9112    0.0000 C   0  0  0  0  0  0  0  0  0  0  0  0
   -4.9666  -17.0531    0.0000 C   0  0  0  0  0  0  0  0  0  0  0  0
   -4.1820  -15.9731    0.0000 C   0  0  0  0  0  0  0  0  0  0  0  0
   -4.9666  -15.7182    0.0000 C   0  0  0  0  0  0  0  0  0  0  0  0
   -3.4675  -22.1606    0.0000 N   0  0  0  0  0  0  0  0  0  0  0  0
   -1.3241  -16.7981    0.0000 N   0  0  1  0  0  0  0  0  0  0  0  0
   -2.7531  -15.9731    0.0000 N   0  0  0  0  0  0  0  0  0  0  0  0
   -5.4516  -16.3856    0.0000 N   0  0  0  0  0  0  0  0  0  0  0  0
   -1.3241  -19.2731    0.0000 C   0  0  0  0  0  0  0  0  0  0  0  0
   -0.6097  -17.2106    0.0000 C   0  0  0  0  0  0  0  0  0  0  0  0
   -6.2766  -16.3856    0.0000 C   0  0  0  0  0  0  0  0  0  0  0  0
   -2.7531  -23.3981    0.0000 C   0  0  0  0  0  0  0  0  0  0  0  0
   -2.0386  -22.9856    0.0000 C   0  0  0  0  0  0  0  0  0  0  0  0
   -1.3241  -15.9731    0.0000 C   0  0  0  0  0  0  0  0  0  0  0  0
   -2.0386  -15.5606    0.0000 C   0  0  0  0  0  0  0  0  0  0  0  0
   -3.4675  -17.2106    0.0000 C   0  0  0  0  0  0  0  0  0  0  0  0
   -2.0386  -17.2106    0.0000 C   0  0  0  0  0  0  0  0  0  0  0  0
   -2.7531  -16.7981    0.0000 C   0  0  1  0  0  0  0  0  0  0  0  0
   -1.3241  -17.6231    0.0000 H   0  0  0  0  0  0  0  0  0  0  0  0
  1  3  2  0  0  0  0
  2 11  1  0  0  0  0
  2 24  1  0  0  0  0
  3 20  1  0  0  0  0
  3 27  1  0  0  0  0
  4  5  2  0  0  0  0
  4 24  1  0  0  0  0
  5 25  1  0  0  0  0
  6  8  4  0  0  0  0
  6 11  4  0  0  0  0
  7 11  4  0  0  0  0
  7 12  4  0  0  0  0
  8 13  4  0  0  0  0
  9 10  4  0  0  0  0
  9 14  4  0  0  0  0
 10 16  4  0  0  0  0
 12 13  4  0  0  0  0
 12 20  1  0  0  0  0
 13 28  1  0  0  0  0
 14 18  4  0  0  0  0
 14 22  1  0  0  0  0
 15 17  4  0  0  0  0
 15 18  4  0  0  0  0
 15 31  1  0  0  0  0
 16 19  4  0  0  0  0
 17 23  4  0  0  0  0
 18 19  4  0  0  0  0
 19 23  4  0  0  0  0
 21 25  1  6  0  0  0
 21 29  1  0  0  0  0
 21 32  1  0  0  0  0
 22 30  1  0  0  0  0
 33 22  1  6  0  0  0
 23 26  1  0  0  0  0
 27 28  1  0  0  0  0
 29 30  1  0  0  0  0
 31 33  1  0  0  0  0
 32 33  1  0  0  0  0
 21 34  1  1  0  0  0
M  END
