obj01
  PyMOL3.1          3D                             0

 70 74  0  0  0  0  0  0  0  0999 V2000
   38.9790    6.6250  -25.3310 O   0  0  0  0  0  0  0  0  0  0  0  0
   32.9790    3.9160  -22.9270 O   0  0  0  0  0  0  0  0  0  0  0  0
   38.0980    5.7580  -25.4160 C   0  0  0  0  0  0  0  0  0  0  0  0
   33.9600    3.0000  -24.8880 C   0  0  0  0  0  0  0  0  0  0  0  0
   34.9840    4.8560  -23.7590 C   0  0  0  0  0  0  0  0  0  0  0  0
   34.9600    3.0240  -25.8640 C   0  0  0  0  0  0  0  0  0  0  0  0
   32.5460    6.5280  -14.1170 C   0  0  0  0  0  0  0  0  0  0  0  0
   32.8230    6.9540  -12.8500 C   0  0  0  0  0  0  0  0  0  0  0  0
   33.9730    3.9180  -23.8660 C   0  0  0  0  0  0  0  0  0  0  0  0
   35.9720    4.8770  -24.7450 C   0  0  0  0  0  0  0  0  0  0  0  0
   35.9610    3.9750  -25.8030 C   0  0  0  0  0  0  0  0  0  0  0  0
   28.9270    5.9980  -13.5580 C   0  0  0  0  0  0  0  0  0  0  0  0
   31.2640    6.1770  -14.4920 C   0  0  0  0  0  0  0  0  0  0  0  0
   31.8530    7.0360  -11.9070 C   0  0  0  0  0  0  0  0  0  0  0  0
   28.4360    6.2520  -12.3320 C   0  0  0  0  0  0  0  0  0  0  0  0
   30.2810    6.2590  -13.5470 C   0  0  0  0  0  0  0  0  0  0  0  0
   30.5780    6.6880  -12.2550 C   0  0  0  0  0  0  0  0  0  0  0  0
   36.9880    5.8280  -24.6390 N   0  0  0  0  0  0  0  0  0  0  0  0
   31.0680    5.7270  -15.8260 N   0  0  0  0  0  0  0  0  0  0  0  0
   30.7130    5.6650  -18.5940 N   0  0  0  0  0  0  0  0  0  0  0  0
   29.4310    6.6720  -11.5410 N   0  0  0  0  0  0  0  0  0  0  0  0
   30.3430    6.3020   -9.2850 C   0  0  0  0  0  0  0  0  0  0  0  0
   27.9610    6.8440   -9.5520 C   0  0  0  0  0  0  0  0  0  0  0  0
   32.5030    5.1740  -22.7570 C   0  0  0  0  0  0  0  0  0  0  0  0
   38.2960    4.5910  -26.3190 C   0  0  0  0  0  0  0  0  0  0  0  0
   37.0000    4.1110  -26.8770 C   0  0  0  0  0  0  0  0  0  0  0  0
   32.0920    6.2070  -16.7600 C   0  0  0  0  0  0  0  0  0  0  0  0
   29.7190    5.7780  -16.4190 C   0  0  0  0  0  0  0  0  0  0  0  0
   32.0250    5.5030  -18.0180 C   0  0  0  0  0  0  0  0  0  0  0  0
   29.6840    5.0960  -17.7310 C   0  0  0  0  0  0  0  0  0  0  0  0
   30.7520    5.0940  -19.8490 C   0  0  0  0  0  0  0  0  0  0  0  0
   32.6890    5.4660  -21.3640 C   0  0  0  0  0  0  0  0  0  0  0  0
   31.4760    6.0610  -20.7450 C   0  0  0  0  0  0  0  0  0  0  0  0
   29.3540    7.0800  -10.1160 C   0  0  0  0  0  0  0  0  0  0  0  0
   33.1687    2.2520  -24.9377 H   0  0  0  0  0  0  0  0  0  0  0  0
   35.0086    5.5599  -22.9271 H   0  0  0  0  0  0  0  0  0  0  0  0
   34.9505    2.2932  -26.6727 H   0  0  0  0  0  0  0  0  0  0  0  0
   33.3527    6.4636  -14.8472 H   0  0  0  0  0  0  0  0  0  0  0  0
   33.8443    7.2337  -12.5917 H   0  0  0  0  0  0  0  0  0  0  0  0
   28.3524    5.6457  -14.4147 H   0  0  0  0  0  0  0  0  0  0  0  0
   32.0841    7.3713  -10.8959 H   0  0  0  0  0  0  0  0  0  0  0  0
   27.3950    6.1347  -12.0308 H   0  0  0  0  0  0  0  0  0  0  0  0
   36.8953    6.5812  -23.9725 H   0  0  0  0  0  0  0  0  0  0  0  0
   31.2242    6.9164   -9.1003 H   0  0  0  0  0  0  0  0  0  0  0  0
   29.8848    6.0298   -8.3342 H   0  0  0  0  0  0  0  0  0  0  0  0
   30.6362    5.3985   -9.8195 H   0  0  0  0  0  0  0  0  0  0  0  0
   27.2490    6.7492  -10.3718 H   0  0  0  0  0  0  0  0  0  0  0  0
   27.9580    5.9280   -8.9611 H   0  0  0  0  0  0  0  0  0  0  0  0
   27.6768    7.6855   -8.9202 H   0  0  0  0  0  0  0  0  0  0  0  0
   31.4569    5.2551  -23.0522 H   0  0  0  0  0  0  0  0  0  0  0  0
   33.0598    5.8799  -23.3732 H   0  0  0  0  0  0  0  0  0  0  0  0
   38.7420    3.7815  -25.7412 H   0  0  0  0  0  0  0  0  0  0  0  0
   38.9501    4.8838  -27.1403 H   0  0  0  0  0  0  0  0  0  0  0  0
   36.6478    4.8413  -27.6055 H   0  0  0  0  0  0  0  0  0  0  0  0
   37.1534    3.1403  -27.3486 H   0  0  0  0  0  0  0  0  0  0  0  0
   33.0720    6.0283  -16.3176 H   0  0  0  0  0  0  0  0  0  0  0  0
   31.9394    7.2713  -16.9392 H   0  0  0  0  0  0  0  0  0  0  0  0
   29.4471    6.8231  -16.5668 H   0  0  0  0  0  0  0  0  0  0  0  0
   29.0151    5.2897  -15.7450 H   0  0  0  0  0  0  0  0  0  0  0  0
   32.2179    4.4434  -17.8502 H   0  0  0  0  0  0  0  0  0  0  0  0
   32.7737    5.9058  -18.7002 H   0  0  0  0  0  0  0  0  0  0  0  0
   29.8682    4.0303  -17.5949 H   0  0  0  0  0  0  0  0  0  0  0  0
   28.7048    5.2351  -18.1892 H   0  0  0  0  0  0  0  0  0  0  0  0
   29.7462    4.8963  -20.2195 H   0  0  0  0  0  0  0  0  0  0  0  0
   31.2848    4.1438  -19.8132 H   0  0  0  0  0  0  0  0  0  0  0  0
   33.4961    6.1939  -21.2813 H   0  0  0  0  0  0  0  0  0  0  0  0
   32.9325    4.5413  -20.8409 H   0  0  0  0  0  0  0  0  0  0  0  0
   31.7971    6.9029  -20.1317 H   0  0  0  0  0  0  0  0  0  0  0  0
   30.7984    6.3784  -21.5376 H   0  0  0  0  0  0  0  0  0  0  0  0
   29.5879    8.1437  -10.0730 H   0  0  0  0  0  0  0  0  0  0  0  0
  2  9  1  0  0  0  0
  1  3  2  0  0  0  0
  3 25  1  0  0  0  0
  4  6  4  0  0  0  0
  4 35  1  0  0  0  0
  5 36  1  0  0  0  0
  6 11  4  0  0  0  0
  6 37  1  0  0  0  0
  7  8  4  0  0  0  0
  7 38  1  0  0  0  0
  8 14  4  0  0  0  0
  8 39  1  0  0  0  0
  4  9  4  0  0  0  0
  5  9  4  0  0  0  0
  5 10  4  0  0  0  0
 10 18  1  0  0  0  0
 10 11  4  0  0  0  0
 11 26  1  0  0  0  0
 12 16  4  0  0  0  0
 12 40  1  0  0  0  0
  7 13  4  0  0  0  0
 13 19  1  0  0  0  0
 14 17  4  0  0  0  0
 14 41  1  0  0  0  0
 12 15  4  0  0  0  0
 15 42  1  0  0  0  0
 13 16  4  0  0  0  0
 16 17  4  0  0  0  0
  3 18  1  0  0  0  0
 18 43  1  0  0  0  0
 19 27  1  0  0  0  0
 19 28  1  0  0  0  0
 20 30  1  0  0  0  0
 20 31  1  0  0  0  0
 15 21  4  0  0  0  0
 17 21  4  0  0  0  0
 22 34  1  0  0  0  0
 22 44  1  0  0  0  0
 22 45  1  0  0  0  0
 22 46  1  0  0  0  0
 23 47  1  0  0  0  0
 23 48  1  0  0  0  0
 23 49  1  0  0  0  0
  2 24  1  0  0  0  0
 24 50  1  0  0  0  0
 24 51  1  0  0  0  0
 25 26  1  0  0  0  0
 25 52  1  0  0  0  0
 25 53  1  0  0  0  0
 26 54  1  0  0  0  0
 26 55  1  0  0  0  0
 27 29  1  0  0  0  0
 27 56  1  0  0  0  0
 27 57  1  0  0  0  0
 28 58  1  0  0  0  0
 28 59  1  0  0  0  0
 20 29  1  0  0  0  0
 29 60  1  0  0  0  0
 29 61  1  0  0  0  0
 28 30  1  0  0  0  0
 30 62  1  0  0  0  0
 30 63  1  0  0  0  0
 31 33  1  0  0  0  0
 31 64  1  0  0  0  0
 31 65  1  0  0  0  0
 24 32  1  0  0  0  0
 32 66  1  0  0  0  0
 32 67  1  0  0  0  0
 32 33  1  0  0  0  0
 33 68  1  0  0  0  0
 33 69  1  0  0  0  0
 21 34  1  0  0  0  0
 23 34  1  0  0  0  0
 34 70  1  0  0  0  0
M  END
$$$$
